*SRC=BZT52C18S;DI_BZT52C18S;Diodes;Zener 10V-50V; 18.0V  0.200W   Diodes Inc. ZENER
*SYM=HZEN
.SUBCKT DI_BZT52C18S  1 2
*        Terminals    A   K
D1 1 2 DF
DZ 3 1 DR
VZ 2 3 15.6
.MODEL DF D ( IS=4.58p RS=28.7 N=1.10
+ CJO=25.3p VJ=1.00 M=0.330 TT=50.1n )
.MODEL DR D ( IS=9.16e-016 RS=29.5 N=3.00 )
.ENDS
