*SRC=1N4734A;DI_1N4734A;Diodes;Zener <=10V; 5.60V  1.00W   Diodes Inc.

*SYM=HZEN
.SUBCKT DI_1N4734A  1 2
*        Terminals    A   K
D1 1 2 DF
DZ 3 1 DR
VZ 2 3 4.48
.MODEL DF D ( IS=73.6p RS=0.620 N=1.10
+ CJO=165p VJ=0.750 M=0.330 TT=50.1n )
.MODEL DR D ( IS=14.7f RS=0.256 N=1.49 )
.ENDS
